* C:\Users\a9300\OneDrive\Documentos\maestria\microondas 1\proyectos\simulador\ejemplos LTspice\ejemplo1.asc
R1 V1 0 1k
R2 V2 0 4k
R3 V2 N001 3k
R4 N001 V1 2k
.op
.backanno
.end
