* C:\Users\Cristian\Desktop\ejemplos_LTspice\ejemplo1.asc
R1 N003 V1 50
R3 V1 0 50
R2 N003 0 50
R4 N004 N003 50
R5 N004 0 50
R6 N005 N004 50
R7 N005 0 50
R8 N001 N005 50
R9 N001 0 50
R10 V2 N001 50
.op
.backanno
.end
