* C:\Users\Cristian\Desktop\ejemplos_LTspice\ejemplo_soloY.asc
R1 V2 V1 10
.op
.backanno
.end
