* C:\Users\a9300\OneDrive\Documentos\maestria\microondas 1\proyectos\simulador\ejemplos LTspice\ejemplo1.asc
C1 V1 N001 10
L2 V3 N001 15
R3 V3 0 20
R4 V1 0 5
.op
.backanno
.end
