* C:\Users\a9300\OneDrive\Documentos\maestria\microondas 1\proyectos\simulador\ejemplos LTspice\ejemplo1.asc
C1 V1 V2 10
C2 V1 0  0.1
C3 V2 0  0.1
.op
.backanno
.end
