* C:\Users\Cristian\Desktop\ejemplos_LTspice\ejemplo7.asc
R1 N001 0 5
R2 N001 V1 10
R3 V2 N002 15
R5 N002 N001 10
R8 0 V2 10
.op
.backanno
.end
