* C:\Users\a9300\OneDrive\Documentos\maestria\microondas 1\proyectos\simulador\ejemplos LTspice\ejemplo1.asc
R1 V1 N001 10
R2 V2 N001 15
R3 V2 0 20
R4 V1 0 5
.op
.backanno
.end
