* C:\Users\Cristian\Desktop\ejemplos_LTspice\ejemplo7.asc
R1 N001 N004 20
R2 N001 V1 10
R3 N003 N002 10
R4 N005 0 10
R5 N002 N001 20
R6 N002 N005 20
R7 N005 N004 20
R8 N004 0 10
R9 V2 N003 20
R10 0 N003 10
.op
.backanno
.end
